
##########################################################################
#               Crystallographic Information Format file
#               Produced by PyCifRW module
#
#  This is a CIF file.  CIF has been adopted by the International
#  Union of Crystallography as the standard for data archiving and
#  transmission.
#
#  For information on this file format, follow the CIF links at
#  http://www.iucr.org
##########################################################################

data_0

loop_
  _atom_site_label
  _atom_site_fract_x
  _atom_site_fract_y
  _atom_site_fract_z
  _atom_site_type_symbol
         O1        0.0       0.0       0.0       O         
         H1        0.05046666666666667           0.039066666666666666          0.0      H        
         H2        0.9495333333333333  0.039066666666666666          0.0       H        
         O2        0.0       0.23333333333333334           0.0       O         
         H3        0.05046666666666667           0.19426666666666667           0.0      H        
         H4        0.9495333333333333  0.19426666666666667           0.0       H
_cell_angle_alpha                       90.0
_cell_angle_beta                        90.0
_cell_angle_gamma                       90.0
_cell_length_a                          15.0
_cell_length_b                          15.0
_cell_length_c                          15.0
loop_
  _symmetry_equiv_pos_as_xyz
         'x, y, z' 
_symmetry_Int_Tables_number             1
_symmetry_space_group_name_H-M          'P 1'
_symmetry_space_group_name_Hall         'P 1'
_cell_formula_units_Z                   1
_chemical_formula_sum                   'H4 O2'